33

 C    -4.178595    -1.165462     0.248826
 C    -2.812178    -1.361857     0.056196
 C    -1.933334    -0.260861    -0.046246
 C    -2.443651     1.072475     0.048861
 C    -3.830963     1.252605     0.244055
 C    -4.679127     0.149449     0.341654
 H    -5.751932     0.312620     0.493159
 H    -4.211398     2.275681     0.315321
 O    -1.653529     2.148647    -0.039892
 H    -0.704939     1.809150    -0.177794
 C    -0.504128    -0.440115    -0.247547
 N     0.345287     0.536519    -0.345114
 C     1.682910    -0.038436    -0.552872
 C     2.684978     0.486331     0.486051
 H     2.684976     1.591404     0.435418
 H     2.304487     0.218216     1.490246
 C     4.128553    -0.035167     0.326954
 C     4.759835     0.379122    -1.012932
 H     4.786095     1.480570    -1.108397
 H     4.203009    -0.020214    -1.878829
 H     5.797750     0.009629    -1.087678
 C     4.991964     0.439247     1.507342
 H     4.566921     0.110744     2.472300
 H     6.020343     0.043540     1.433590
 H     5.054996     1.543123     1.525420
 H     4.099519    -1.144014     0.361234
 H     2.025763     0.248688    -1.564888
 C     1.429438    -1.573300    -0.473686
 H     1.886377    -2.035750     0.419410
 H     1.745878    -2.128045    -1.370934
 O    -0.012580    -1.703723    -0.349994
 H    -2.392115    -2.369070    -0.019729
 H    -4.854970    -2.021889     0.327212
