54

 C    -2.109585    -1.183540     0.051670
 C    -0.752003    -1.450212    -0.112613
 C     0.180735    -0.397921    -0.247137
 C    -0.241700     0.964627    -0.220146
 C    -1.626539     1.261568    -0.049877
 C    -2.502471     0.177395     0.078647
 H    -3.565300     0.395641     0.208307
 C    -2.125618     2.718518    -0.009926
 C    -3.653285     2.794994     0.186947
 H    -4.200399     2.304860    -0.637856
 H    -3.969968     2.332329     1.138541
 H    -3.962543     3.854499     0.210560
 C    -1.784759     3.424547    -1.347284
 H    -2.140718     4.470754    -1.320671
 H    -0.700021     3.427235    -1.530580
 H    -2.283443     2.913454    -2.190022
 C    -1.458167     3.466725     1.172391
 H    -0.362462     3.469608     1.073610
 H    -1.724580     2.986616     2.130862
 H    -1.812446     4.513406     1.202071
 O     0.647810     1.963364    -0.354311
 H     1.568462     1.534431    -0.475922
 C     1.599019    -0.679596    -0.399245
 N     2.515485     0.230012    -0.542641
 C     3.825613    -0.431903    -0.571790
 H     4.356621    -0.141003    -1.498890
 C     4.704240    -0.020166     0.635316
 C     6.102677    -0.647184     0.523392
 H     6.629710    -0.266958    -0.371511
 H     6.715213    -0.396877     1.406716
 H     6.061200    -1.748850     0.448310
 C     4.785190     1.506820     0.769125
 H     3.781994     1.944983     0.894260
 H     5.245193     1.955662    -0.130996
 H     5.402224     1.788158     1.640445
 H     4.206905    -0.421410     1.541679
 C     3.452854    -1.944605    -0.594465
 H     3.921623    -2.524899     0.217260
 H     3.662791    -2.434351    -1.560025
 O     2.015534    -1.973308    -0.381613
 H    -0.366958    -2.471307    -0.141292
 C    -3.172640    -2.285046     0.202440
 C    -3.892544    -2.120705     1.563490
 H    -4.667804    -2.898921     1.686552
 H    -4.385687    -1.136531     1.644039
 H    -3.174806    -2.209846     2.397628
 C    -4.205970    -2.161240    -0.944106
 H    -4.708122    -1.178413    -0.931698
 H    -4.984239    -2.940274    -0.848155
 H    -3.715120    -2.279040    -1.925963
 C    -2.549354    -3.692996     0.147368
 H    -3.339845    -4.455916     0.258383
 H    -2.039190    -3.873355    -0.815036
 H    -1.817596    -3.844690     0.960098
