31

 C    -2.421918    -1.059917     0.149837
 C    -1.091314    -1.395653    -0.108276
 C    -0.132772    -0.395762    -0.371173
 C    -0.520468     0.972917    -0.358428
 C    -1.879978     1.265381    -0.090740
 C    -2.835894     0.279362     0.160148
 H    -3.874340     0.550128     0.361351
Br    -2.392324     3.109841    -0.070409
 O     0.385932     1.939110    -0.579059
 H    -0.082555     2.801683    -0.513911
 C     1.255082    -0.807632    -0.640253
 N     2.207917    -0.085157    -1.107862
 C     3.407264    -0.928420    -1.154833
 C     4.530178    -0.374057    -0.285296
 C     4.344107     0.780799     0.492657
 C     5.383380     1.263083     1.302031
 C     6.617467     0.599376     1.341606
 C     6.811227    -0.551339     0.561925
 C     5.774489    -1.032087    -0.248235
 H     5.936798    -1.927985    -0.860382
 H     7.774062    -1.073404     0.582004
 H     7.427421     0.977153     1.974743
 H     5.227065     2.164579     1.904662
 H     3.378842     1.294097     0.444396
 H     3.770449    -0.962033    -2.199681
 C     2.905833    -2.344891    -0.711023
 H     2.936279    -3.091674    -1.522271
 H     3.434052    -2.736235     0.173347
 O     1.520831    -2.124559    -0.351172
 H    -0.768379    -2.437846    -0.113618
Br    -3.698330    -2.433132     0.492976
