51

 C    -1.312675    -3.115345     2.584111
 C    -0.401678    -3.061989     1.529488
 C    -0.658456    -2.275841     0.385576
 C    -1.883164    -1.541992     0.292946
 C    -2.803552    -1.619953     1.361384
 C    -2.511033    -2.386361     2.491860
 H    -3.241067    -2.427942     3.307470
 H    -3.746033    -1.076262     1.277335
 N    -2.158712    -0.819506    -0.875684
 H    -1.368111    -0.865214    -1.564447
 S    -2.906160     0.710932    -0.939896
 O    -4.049507     0.716133    -0.009700
 O    -3.050811     0.977313    -2.379157
 C    -1.659716     1.829028    -0.297882
 C    -1.530926     2.006573     1.087520
 C    -0.499621     2.820531     1.569200
 C     0.403034     3.455461     0.691886
 C     0.226047     3.279976    -0.695464
 C    -0.797751     2.470475    -1.198703
 H    -0.942684     2.327161    -2.273319
 H     0.908060     3.780164    -1.391917
 C     1.564766     4.255134     1.227718
 H     1.314147     4.743698     2.184230
 H     2.425534     3.583584     1.410997
 H     1.890110     5.027762     0.511568
 H    -0.389525     2.963766     2.649979
 H    -2.236125     1.520212     1.767147
 C     0.359609    -2.183949    -0.661398
 N     0.289062    -1.450807    -1.729175
 C     1.618225    -1.468031    -2.354953
 H     1.518230    -1.622719    -3.442841
 C     2.325740    -0.100959    -2.117209
 C     2.746554     0.118601    -0.679853
 C     1.799119     0.385282     0.329789
 C     2.194286     0.506243     1.668265
 C     3.545399     0.381839     2.023313
 C     4.501524     0.136109     1.027433
 C     4.101561     0.002184    -0.309574
 H     4.854382    -0.190174    -1.083802
 H     5.560830     0.046069     1.291226
 H     3.852379     0.478608     3.070232
 H     1.437375     0.700578     2.434865
 H     0.744699     0.495848     0.066328
 H     3.211938    -0.050482    -2.775131
 H     1.623121     0.686028    -2.443067
 C     2.309981    -2.670129    -1.666385
 H     2.269158    -3.591400    -2.273903
 H     3.344439    -2.476211    -1.344743
 O     1.511349    -2.885517    -0.471228
 H     0.540799    -3.613923     1.571881
 H    -1.097430    -3.722616     3.468530
