57

 C    -2.261112    -1.191067     0.024861
 C    -0.909500    -1.439531    -0.203983
 C     0.004459    -0.374527    -0.364864
 C    -0.431299     0.982536    -0.299061
 C    -1.810039     1.260901    -0.061655
 C    -2.667341     0.164787     0.089421
 H    -3.725646     0.368786     0.269446
 C    -2.322135     2.711305     0.023566
 C    -3.840199     2.767682     0.289331
 H    -4.159177     3.823179     0.343555
 H    -4.418354     2.284319    -0.518117
 H    -4.109344     2.286829     1.246527
 C    -1.610303     3.448085     1.187082
 H    -1.829173     2.950275     2.148570
 H    -1.973229     4.490364     1.249269
 H    -0.520125     3.464161     1.039967
 C    -2.048586     3.441870    -1.316053
 H    -0.973220     3.459152    -1.547528
 H    -2.579288     2.938635    -2.143826
 H    -2.413608     4.483591    -1.256670
 O     0.440934     1.992864    -0.457052
 H     1.359473     1.575290    -0.628324
 C     1.418165    -0.636770    -0.577399
 N     2.315926     0.285361    -0.760499
 C     3.635006    -0.359021    -0.793556
 H     4.175394    -0.041240    -1.704349
 C     4.504874     0.061477     0.434279
 C     5.883697    -0.618118     0.321692
 H     6.536518    -0.301588     1.154078
 H     6.384962    -0.345763    -0.625126
 H     5.805542    -1.719706     0.363198
 C     3.814546    -0.341384     1.751548
 H     2.829325     0.147502     1.841371
 H     4.429603    -0.031421     2.614594
 H     3.665372    -1.433548     1.824154
 C     4.683508     1.592448     0.399071
 H     3.708832     2.101263     0.480790
 H     5.162172     1.914588    -0.543523
 H     5.321654     1.924702     1.237078
 C     3.275048    -1.869946    -0.872595
 H     3.802237    -2.501954    -0.141328
 H     3.416366    -2.289402    -1.883299
 O     1.856572    -1.923419    -0.561085
 H    -0.514540    -2.455434    -0.264245
 C    -3.304011    -2.306964     0.206959
 C    -4.388927    -2.179329    -0.890495
 H    -3.941251    -2.278127    -1.894831
 H    -4.900617    -1.202551    -0.841818
 H    -5.153671    -2.968432    -0.770989
 C    -2.668061    -3.706528     0.103776
 H    -1.899105    -3.860951     0.880870
 H    -2.199350    -3.867282    -0.882876
 H    -3.444211    -4.480244     0.238659
 C    -3.964083    -2.170138     1.600988
 H    -3.208753    -2.262017     2.400931
 H    -4.464546    -1.193288     1.717559
 H    -4.723999    -2.959376     1.747333
