40

 C    -3.774718    -2.465660     0.656678
 C    -2.403664    -2.567806     0.415540
 C    -1.649868    -1.453807    -0.006565
 C    -2.291404    -0.182054    -0.180788
 C    -3.684711    -0.108424     0.043088
 C    -4.408607    -1.229438     0.459418
 H    -5.488064    -1.134021     0.618365
 H    -4.212978     0.827383    -0.138782
 N    -1.510778     0.900287    -0.585532
 C    -1.567583     2.267677    -0.331846
 O    -0.603138     2.960176    -0.649913
 C    -2.792696     2.868954     0.347846
 C    -2.544683     4.312465     0.788268
 H    -1.727811     4.362204     1.527348
 H    -3.455500     4.738639     1.241906
 H    -2.247440     4.934122    -0.071283
 H    -3.082769     2.231340     1.203868
 H    -3.640096     2.825712    -0.363798
 H    -0.568339     0.606437    -0.919276
 C    -0.211370    -1.622092    -0.243704
 N     0.569185    -0.771958    -0.823197
 C     1.921758    -1.336198    -0.850477
 C     2.968764    -0.387870    -0.280902
 C     2.677625     0.968462    -0.050372
 C     3.665020     1.824329     0.459797
 C     4.949731     1.340422     0.743076
 C     5.247882    -0.010128     0.508561
 C     4.263533    -0.866564    -0.002054
 H     4.511388    -1.918796    -0.188624
 H     6.249623    -0.398470     0.722191
 H     5.717241     2.011756     1.142847
 H     3.422360     2.877937     0.634500
 H     1.681338     1.359964    -0.275381
 H     2.184982    -1.534731    -1.909087
 C     1.771619    -2.684566    -0.073945
 H     2.082244    -3.569488    -0.650838
 H     2.292580    -2.672938     0.898445
 O     0.346516    -2.792968     0.181387
 H    -1.881695    -3.518889     0.549599
 H    -4.345778    -3.339988     0.982719
