24

 C    -2.931707    -1.401764     0.197486
 C    -1.542891    -1.464451     0.098044
 C    -0.776016    -0.285632    -0.034405
 C    -1.424710     0.989294    -0.067604
 C    -2.832882     1.033706     0.034527
 C    -3.568604    -0.144178     0.164570
 H    -4.659986    -0.086166     0.241983
 H    -3.319430     2.013015     0.008156
 O    -0.744809     2.134921    -0.191303
 H     0.240388     1.889861    -0.250349
 C     0.674178    -0.324761    -0.137977
 N     1.423275     0.727773    -0.266159
 C     2.826683     0.289932    -0.311403
 C     3.649834     0.927435     0.812566
 H     3.620943     2.026636     0.731779
 H     4.703623     0.600739     0.758033
 H     3.241994     0.641785     1.798016
 H     3.257516     0.591186    -1.285130
 C     2.721344    -1.263382    -0.216719
 H     3.093727    -1.786865    -1.112423
 H     3.217155    -1.676178     0.678755
 O     1.298450    -1.531939    -0.100873
 H    -1.018511    -2.424251     0.120164
 H    -3.520902    -2.317990     0.299718
