31

 C    -2.321327    -0.533650    -0.080101
 C    -1.105357     0.112966     0.154501
 C     0.067352    -0.624642     0.425943
 C    -0.003000    -2.044215     0.441126
 C    -1.239646    -2.673945     0.201230
 C    -2.397426    -1.934406    -0.056080
 H    -3.344712    -2.449049    -0.238414
 H    -1.289063    -3.769857     0.213857
 O     1.120549    -2.765884     0.670289
 H     0.890106    -3.712197     0.627150
 C     1.318942     0.108790     0.670295
 N     2.418978    -0.357154     1.143173
 C     3.387402     0.744110     1.153221
 C     4.595505     0.450457     0.270527
 C     4.665964    -0.724531    -0.496322
 C     5.775717    -0.966526    -1.319529
 C     6.825906    -0.040202    -1.384232
 C     6.764124     1.132512    -0.615733
 C     5.657091     1.373416     0.208174
 H     5.620033     2.289207     0.811244
 H     7.582609     1.859558    -0.655423
 H     7.691258    -0.230572    -2.028131
 H     5.819891    -1.886217    -1.913383
 H     3.843138    -1.442787    -0.427654
 H     3.749501     0.885275     2.189408
 C     2.560998     1.993699     0.695089
 H     2.417152     2.737108     1.497539
 H     2.977066     2.488180    -0.197504
 O     1.267929     1.444929     0.348896
 H    -1.031738     1.201922     0.136204
 I    -4.066983     0.610749    -0.476483
