37

 C    -0.355524    -1.104882     0.376468
 N    -1.118251    -0.171422     0.868348
 C    -2.478778    -0.701316     0.993430
 C    -3.520908     0.148751     0.284029
 C    -3.157204     1.014115    -0.761832
 C    -4.134961     1.752090    -1.443494
 C    -5.486416     1.630765    -1.088951
 C    -5.855737     0.772422    -0.042489
 C    -4.877139     0.039195     0.641961
 H    -5.169298    -0.621470     1.467298
 H    -6.908106     0.679591     0.246685
 H    -6.249496     2.208522    -1.621171
 H    -3.838737     2.428282    -2.252648
 H    -2.098745     1.115305    -1.022552
 H    -2.746640    -0.754571     2.066021
 C    -2.353787    -2.144159     0.393659
 H    -2.648308    -2.940027     1.095554
 H    -2.910724    -2.256741    -0.551263
 O    -0.939365    -2.299436     0.102989
 C     1.058577    -0.933965     0.106523
 C     1.638143     0.330544     0.371635
 C     3.036879     0.536752     0.105791
 C     3.649857     1.793119     0.360082
 C     4.999116     1.982287     0.100346
 C     5.777867     0.918489    -0.422701
 C     5.199911    -0.316550    -0.678508
 C     3.818434    -0.546983    -0.424436
 C     3.197531    -1.811027    -0.680320
 C     1.857260    -1.993940    -0.421553
 H     1.371740    -2.954739    -0.614461
 H     3.803948    -2.627842    -1.084451
 H     5.803143    -1.137078    -1.082550
 H     6.842947     1.074902    -0.625374
 H     5.466186     2.952641     0.298552
 H     3.031028     2.599094     0.763644
 O     0.933882     1.353279     0.859135
 H    -0.025191     1.017168     0.995988
