65

 C     3.187847     1.279406     0.548354
 C     1.797274     1.213102     0.506778
 C     1.143007     0.065952     0.003721
 C     1.886999    -1.055128    -0.471147
 C     3.312493    -1.010294    -0.435507
 C     3.903263     0.153110     0.070926
 H     4.994688     0.196190     0.101250
 C     4.155717    -2.198782    -0.935202
 C     3.826690    -3.461061    -0.097482
 H     4.430153    -4.315657    -0.454277
 H     2.761907    -3.725847    -0.177486
 H     4.068730    -3.290265     0.966657
 C     3.854455    -2.459939    -2.433255
 H     4.117019    -1.574005    -3.038470
 H     2.790449    -2.690521    -2.591321
 H     4.457388    -3.313373    -2.793714
 C     5.667298    -1.924690    -0.799510
 H     5.963170    -1.756263     0.251190
 H     6.228276    -2.800816    -1.168763
 H     5.982945    -1.049766    -1.395112
 O     1.261753    -2.146056    -0.944444
 H     0.257274    -1.970865    -0.894422
 C    -0.307227     0.002751    -0.037678
 N    -0.987734    -1.011918    -0.481951
 C    -2.409309    -0.672096    -0.425716
 C    -3.279544    -1.735349     0.211506
 C    -2.743559    -2.643384     1.141016
 C    -3.572117    -3.580927     1.772605
 C    -4.944727    -3.616938     1.484866
 C    -5.484398    -2.716088     0.554681
 C    -4.654775    -1.782936    -0.082208
 H    -5.075200    -1.085768    -0.816095
 H    -6.553374    -2.745673     0.317730
 H    -5.591170    -4.350533     1.978202
 H    -3.143381    -4.289599     2.489347
 H    -1.668887    -2.616869     1.349382
 H    -2.773615    -0.483622    -1.454154
 C    -2.421908     0.682087     0.386799
 C    -3.285658     1.760873    -0.208474
 C    -4.620866     1.890914     0.214915
 C    -5.465518     2.834146    -0.386422
 C    -4.979101     3.663198    -1.407622
 C    -3.644436     3.544493    -1.824515
 C    -2.801328     2.595775    -1.231565
 H    -1.756911     2.506948    -1.546489
 H    -3.257049     4.196507    -2.614657
 H    -5.636369     4.405262    -1.872969
 H    -6.503449     2.927786    -0.049801
 H    -4.997997     1.248835     1.018839
 H    -2.714306     0.484763     1.433284
 O    -1.019190     1.075052     0.403635
 H     1.171979     2.036114     0.858074
 C     3.957062     2.499548     1.082313
 C     3.004018     3.616165     1.549981
 H     3.589423     4.474026     1.924810
 H     2.366509     3.977856     0.724279
 H     2.347326     3.272722     2.368349
 C     4.833554     2.067881     2.283635
 H     5.559905     1.288338     1.995485
 H     4.207276     1.663898     3.098131
 H     5.401394     2.930914     2.676569
 C     4.863087     3.065564    -0.038630
 H     4.258228     3.384061    -0.905574
 H     5.590220     2.313255    -0.390262
 H     5.431341     3.939340     0.329140
