31

 C    -4.095817    -0.499333     0.440745
 C    -2.831657    -0.984163     0.135460
 C    -1.816059    -0.074116    -0.236027
 C    -2.086082     1.328931    -0.295141
 C    -3.387001     1.778305     0.025384
 C    -4.384347     0.874382     0.389546
 H    -5.393531     1.216273     0.637687
 H    -3.588245     2.852118    -0.020498
 O    -1.153591     2.227540    -0.636097
 H    -0.304537     1.709250    -0.845916
 C    -0.473471    -0.532477    -0.554425
 N     0.489295     0.257092    -0.924253
 C     1.695512    -0.551534    -1.127516
 C     2.872213    -0.085173    -0.284101
 C     2.672849     0.689738     0.871063
 C     3.763039     1.067706     1.667432
 C     5.062742     0.673069     1.318973
 C     5.269165    -0.096148     0.163949
 C     4.179754    -0.469140    -0.634473
 H     4.347567    -1.060569    -1.542795
 H     6.282382    -0.399930    -0.120207
 H     5.913823     0.969659     1.941039
 H     3.595994     1.677103     2.562049
 H     1.657637     1.008303     1.128455
 H     1.988255    -0.495714    -2.192875
 C     1.218413    -2.002251    -0.771061
 H     1.308376    -2.712243    -1.608311
 H     1.725709    -2.409106     0.118735
 O    -0.192604    -1.855517    -0.455371
 H    -2.619407    -2.054776     0.180779
 F    -5.075789    -1.362647     0.796266
