31

 C    -3.942878    -0.750073     0.473638
 C    -2.593732    -1.070106     0.282524
 C    -1.715873    -0.052199    -0.141451
 N    -2.113172     1.214912    -0.370418
 C    -3.405144     1.503401    -0.184101
 C    -4.362936     0.563905     0.236117
 H    -5.407915     0.860883     0.372150
 H    -3.700375     2.543753    -0.378691
 C    -0.279875    -0.352023    -0.351009
 N     0.620680     0.459814    -0.765971
 C     1.896479    -0.270828    -0.752074
 H     2.321522    -0.251388    -1.773816
 C     2.931452     0.431318     0.182975
 C     4.251037    -0.364463     0.159356
 H     5.016893     0.144898     0.770838
 H     4.643134    -0.452693    -0.870527
 H     4.126623    -1.384188     0.567383
 C     3.175593     1.853592    -0.359228
 H     3.597186     1.817616    -1.380389
 H     3.889569     2.396321     0.286010
 H     2.228194     2.414745    -0.400339
 C     2.383784     0.517647     1.620355
 H     1.442716     1.093284     1.641089
 H     2.187402    -0.482412     2.048170
 H     3.113403     1.022442     2.278034
 C     1.505008    -1.725894    -0.351791
 H     2.020085    -2.100508     0.548277
 H     1.640368    -2.452718    -1.170423
 O     0.089330    -1.640817    -0.052093
 H    -2.211050    -2.079351     0.452489
 H    -4.653586    -1.515594     0.802527
