45

 C     4.534898     0.116443     0.419733
 C     5.037500    -0.979299    -0.323600
 C     4.182538    -1.837177    -1.005295
 C     2.782534    -1.638277    -0.975932
 C     2.278297    -0.534543    -0.228276
 C     3.156870     0.335078     0.466209
 H     2.718110     1.163018     1.026248
 C     0.842813    -0.326412    -0.194084
 N    -0.020590    -1.083498    -0.802497
 C    -1.352216    -0.516179    -0.590282
 C    -2.393301    -1.520214    -0.140635
 C    -2.017787    -2.692019     0.538712
 C    -2.994184    -3.581393     1.007903
 C    -4.354993    -3.305991     0.806729
 C    -4.735497    -2.140301     0.125240
 C    -3.759031    -1.254128    -0.350084
 H    -4.056618    -0.348446    -0.891012
 H    -5.795869    -1.924538    -0.044510
 H    -5.117173    -4.002073     1.172787
 H    -2.691024    -4.495993     1.528821
 H    -0.953025    -2.905489     0.678997
 H    -1.695213    -0.046317    -1.532460
 C    -1.098542     0.608820     0.489204
 C    -1.758101     1.927060     0.187174
 C    -3.031075     2.202704     0.718636
 C    -3.697408     3.388983     0.381572
 C    -3.091853     4.314857    -0.480257
 C    -1.817189     4.048759    -1.003543
 C    -1.153748     2.859404    -0.675497
 H    -0.155445     2.652564    -1.073727
 H    -1.336127     4.772926    -1.669651
 H    -3.608900     5.244978    -0.738606
 H    -4.688233     3.594316     0.800485
 H    -3.500385     1.482753     1.398484
 H    -1.402894     0.242757     1.485663
 O     0.353110     0.733671     0.506127
 O     1.987605    -2.488437    -1.642514
 H     1.034373    -2.169123    -1.507050
 H     4.571991    -2.683455    -1.578289
 H     6.120832    -1.132450    -0.345972
 O     5.472399     0.891279     1.049444
 C     5.007662     1.997397     1.806146
 H     4.344694     1.674643     2.633211
 H     5.902821     2.481498     2.224034
 H     4.460015     2.722657     1.172186
