47

 C    -0.746455    -1.509217     0.141530
 O     0.109369    -1.796825    -0.902899
 N    -0.279972    -0.818729     1.119914
 C     1.422612    -1.336893    -0.497974
 H     2.017195    -2.227919    -0.226747
 C     1.107615    -0.488396     0.797652
 H     1.157470     0.589755     0.547369
 C     2.080605    -0.767064     1.925509
 C     3.356349    -0.172309     1.917503
 C     1.743878    -1.655844     2.960681
 C     4.287755    -0.476925     2.919575
 H     3.618819     0.535682     1.122898
 C     2.674106    -1.955835     3.965745
 H     0.738290    -2.088379     2.973667
 C     3.949448    -1.372014     3.945793
 H     5.277621    -0.007821     2.904088
 H     2.400140    -2.645416     4.771824
 H     4.675230    -1.606768     4.731865
 C    -2.110127    -2.028012    -0.034696
 C    -2.443917    -2.650122    -1.237278
 C    -3.118197    -1.919378     0.988545
 C    -3.739854    -3.165770    -1.495774
 H    -1.670532    -2.736165    -2.005078
 C    -4.394696    -2.419334     0.755533
 C    -4.075369    -3.794976    -2.730165
 C    -4.745102    -3.044979    -0.470516
 H    -5.153007    -2.330897     1.544036
 C    -5.351004    -4.286863    -2.949807
 H    -3.303026    -3.881663    -3.502413
 C    -6.048774    -3.561414    -0.727288
 C    -6.342768    -4.167230    -1.938298
 H    -5.600591    -4.768692    -3.900689
 H    -6.816939    -3.472279     0.048853
 H    -7.349193    -4.559143    -2.120791
 O    -2.781411    -1.334951     2.164996
 H    -3.566586    -1.347309     2.742958
 C     2.100561    -0.572360    -1.603218
 C     1.360761     0.252293    -2.470742
 C     3.500204    -0.626187    -1.733559
 C     2.013068     1.014161    -3.448434
 H     0.270074     0.279438    -2.382024
 C     4.152842     0.143586    -2.706622
 H     4.079076    -1.275658    -1.067235
 C     3.410818     0.965982    -3.566619
 H     1.427748     1.647583    -4.123704
 H     5.243091     0.093688    -2.798890
 H     3.919089     1.562686    -4.331457
